*KEYWORD
$ 
*TITLE
Airbag folding example
$
$
$
$ ====================
$ MAT (Material) cards
$ ====================
$
*MAT_FABRIC
         1   0.78E-8     100.0       0.0       0.0       0.3       0.0       0.0
       0.0       0.0       0.0       0.0       0.0       0.0       0.0       0.0
       0.0         0         0         0       0.0       0.0
       0.0       0.0       0.0       0.0       0.0       0.0
       0.0       0.0       0.0       0.0       0.0       0.0
$
$
$
$ =============
$ SECTION cards
$ =============
$
*SECTION_SHELL
         1         5       1.0         3       0.0       0.0         0         0
      0.25      0.25      0.25      0.25       0.0
$
$
$
$ ==========
$ PART cards
$ ==========
$
*PART
$HMNAME COMPS       1airbag @ airbag
airbag @ airbag
         1         1         1         0         0         0         0         0
$
$
$
$ ==========
$ NODE cards
$ ==========
$
*NODE
       1       118.50001      -107.58167       143.30341       0       0
       2       57.000008      -14.444756       195.75208       0       0
       3       48.500000      -8.9434509       94.791359       0       0
       4       40.560333      -2.9189034       184.65050       0       0
       5       48.500000       8.1826706       173.12465       0       0
       6       118.50000       14.603201       159.63306       0       0
       7           100.0      -17.980278       192.21654       0       0
       8       100.00001      -29.751114       202.82094       0       0
       9       82.500000      -14.444756       195.75208       0       0
      10       100.00001      -56.960266       207.53297       0       0
      11       100.00001      -73.001801       201.75294       0       0
      12       100.00001      -95.152435       179.00912       0       0
      13       100.00001      -100.08917       161.99167       0       0
      14           154.0       27.118994       136.51067       0       0
      15       171.00002      -99.671143       165.57108       0       0
      16       118.50000      -17.980278       192.21654       0       0
      17       118.50001      -29.751114       202.82094       0       0
      18       118.50001      -56.960266       207.53297       0       0
      19       118.50001      -73.001801       201.75294       0       0
      20       118.50001      -95.152435       179.00912       0       0
$ ... 6726 like lines cut
$
$
$ =============
$ ELEMENT cards
$ =============
$
*ELEMENT_SHELL
       1       1     139     805     828     809
       2       1     805       1     803     828
       3       1     828     803      21     808
       4       1     809     828     808      13
       5       1       1     804     829     803
       6       1     804      60     819     829
       7       1     829     819      27     816
       8       1     803     829     816      21
       9       1      60     821     830     819
      10       1     821     223     827     830
      11       1     830     827     222     820
      12       1     819     830     820      27
      13       1      13     808     831     806
      14       1     808      21     814     831
      15       1     831     814      20     262
      16       1     806     831     262      12
      17       1      21     816     832     814
      18       1     816      27     817     832
      19       1     832     817      26     278
      20       1     814     832     278      20
$ ... 6788 like lines cut
$
$
$ ============
$ DEFINE cards
$ ============
$
*DEFINE_COORDINATE_SYSTEM
         1       0.0       0.0       0.0       1.0       0.0       0.0
       0.0       1.0       0.0
$
$
$ ==============
$ BOUNDARY cards
$ ==============
$
*BOUNDARY_SPC_NODE
      3605         0         1         1         1         1         1         1
      3671         0         1         1         1         1         1         1
      3674         0         1         1         1         1         1         1
      3675         0         1         1         1         1         1         1
      3739         0         1         1         1         1         1         1
      3971         0         1         1         1         1         1         1
      3972         0         1         1         1         1         1         1
      4060         0         1         1         1         1         1         1
      4062         0         1         1         1         1         1         1
      4064         0         1         1         1         1         1         1
      4208         0         1         1         1         1         1         1
      4210         0         1         1         1         1         1         1
      4211         0         1         1         1         1         1         1
      4513         0         1         1         1         1         1         1
      4514         0         1         1         1         1         1         1
      4570         0         1         1         1         1         1         1
      4799         0         1         1         1         1         1         1
      4887         0         1         1         1         1         1         1
      4889         0         1         1         1         1         1         1
      5033         0         1         1         1         1         1         1
$ ... 17 like lines cut
$
$
$ ============
$ AIRBAG cards
$ ============
$
*AIRBAG_REFERENCE_GEOMETRY
       1       18.500000       314.45627             0.0
       2           272.0       146.60001      0.30000001
       3       280.50000   2.9771741E-12      0.30000001
       4       288.43967       126.60000             0.0
       5       280.50000       106.60000      0.30000001
       6       18.500000            89.0      0.30000001
       7   2.8421709E-13       146.60001      0.30000001
       8             0.0       167.50000      0.30000001
       9       246.50000       146.60001      0.30000001
      10   1.4971516E-16       207.50000      0.30000001
      11             0.0       229.50000      0.30000001
      12             0.0       269.50000      0.30000001
      13             0.0       293.16666      0.30000001
      14            54.0            49.0      0.30000001
      15            71.0       288.19705      0.30000001
      16       18.500000       146.60001      0.30000001
      17       18.500000       167.50000      0.30000001
      18       18.500000       207.50000      0.30000001
      19       18.500000       229.50000      0.30000001
      20       18.500000       269.50000      0.30000001
$ ... 6726 like lines cut
$
$
$ =========
$ SET cards
$ =========
$
$
$ <No cross-references to Set_node 1 found>
$
*SET_NODE_LIST
         1       0.0       0.0       0.0       0.0
         1         2         3         4         5         6         7         8
         9        10        11        12        13        14        15        16
        17        18        19        20        21        22        23        24
        25        26        27        28        29        30        31        32
        33        34        35        36        37        38        39        40
        41        42        43        44        45        46        47        48
        49        50        51        52        53        54        55        56
        57        58        59        60        61        62        63        64
        65        66        67        68        69        70        71        72
        73        74        75        76        77        78        79        80
        81        82        83        84        85        86        87        88
        89        90        91        92        93        94        95        96
        97        98        99       100       101       102       103       104
       105       106       107       108       109       110       111       112
       113       114       115       116       117       118       119       120
       121       122       123       124       125       126       127       128
       129       130       131       132       133       134       135       136
       137       138       139       140       141       142       143       144
       145       146       147       148       149       150       151       152
$ ... 825 like lines cut
$
$
$ Cross-reference summary for Set_node 2
$ --------------------------------------
$ Airbag folding structure 1
$ Airbag fold lists 1
$ Airbag fold lists 1
$ Airbag fold lists 1
$ Airbag fold lists 2
$ Airbag fold lists 2
$ Airbag fold lists 2
$
*SET_NODE_LIST
         2       0.0       0.0       0.0       0.0
         1         2         3         4         5         6         7         8
         9        10        11        12        13        14        15        16
        17        18        19        20        21        22        23        24
        25        26        27        28        29        30        31        32
        33        34        35        36        37        38        39        40
        41        42        43        44        45        46        47        48
        49        50        51        52        53        54        55        56
        57        58        59        60        61        62        63        64
        65        66        67        68        69        70        71        72
        73        74        75        76        77        78        79        80
        81        82        83        84        85        86        87        88
        89        90        91        92        93        94        95        96
        97        98        99       100       101       102       103       104
       105       106       107       108       109       110       111       112
       113       114       115       116       117       118       119       120
       121       122       123       124       125       126       127       128
       129       130       131       132       133       134       135       136
       137       138       139       140       141       142       143       144
       145       146       147       148       149       150       151       152
$ ... 825 like lines cut
$
$
$ <No cross-references to Set_node 100 found>
$
*SET_NODE_LIST
       100       0.0       0.0       0.0       0.0
         2         3         4         5         9        37        38        40
        41        42        50        51        53        54        61        64
        67        68        71        72        75        76        79        80
        83        84        87        88        89        90        95        96
        97        98        99       100       104       105       106       107
       108       109       113       114       115       116       117       118
       120       121       122       123       124       125       128       131
       132       133       134       135       136       137       138       141
       142       143       144       145       146       147       148       149
       150       151       152       153       154       155       156       157
       158       160       161       162       164       165       166       167
       168       170       171       172       173       176       178       183
       185       186       187       188       189       190       191       192
       193       194       195       196       197       198       199       200
       201       202       203       207       209       212       216       220
       224       225       226       233       234       235       236       237
       238       240       241       242       243       253       254       255
       256       315       316       317       318       319       320       321
       322       323       343       344       345       346       350       351
$ ... 204 like lines cut
$
$
$ <No cross-references to Set_node 101 found>
$
*SET_NODE_LIST
       101    5954.0    5955.0    5956.0    5957.0
         2         3         4         5         9        37        38        40
        41        42        50        51        53        54        61        64
        67        68        71        72        75        76        79        80
        83        84        87        88        89        90        95        96
        97        98        99       100       104       105       106       107
       108       109       113       114       115       116       117       118
       120       121       122       123       124       125       128       131
       132       133       134       135       136       137       138       141
       142       143       144       145       146       147       148       149
       150       151       152       153       154       155       156       157
       158       160       161       162       164       165       166       167
       168       170       171       172       173       176       178       183
       185       186       187       188       189       190       191       192
       193       194       195       196       197       198       199       200
       201       202       203       207       209       212       216       220
       224       225       226       233       234       235       236       237
       238       240       241       242       243       253       254       255
       256       315       316       317       318       319       320       321
       322       323       343       344       345       346       350       351
$ ... 204 like lines cut
$
$
$ Cross-reference summary for Set_shell 1
$ ---------------------------------------
$ Airbag folding structure 1
$ Airbag fold lists 1
$ Airbag fold lists 1
$ Airbag fold lists 1
$ Airbag fold lists 2
$ Airbag fold lists 2
$ Airbag fold lists 2
$
*SET_SHELL_LIST
         1       0.0       0.0       0.0       0.0
         1         2         3         4         5         6         7         8
         9        10        11        12        13        14        15        16
        17        18        19        20        21        22        23        24
        25        26        27        28        29        30        31        32
        33        34        35        36        37        38        39        40
        41        42        43        44        45        46        47        48
        49        50        51        52        53        54        55        56
        57        58        59        60        61        62        63        64
        65        66        67        68        69        70        71        72
        73        74        75        76        77        78        79        80
        81        82        83        84        85        86        87        88
        89        90        91        92        93        94        95        96
        97        98        99       100       101       102       103       104
       105       106       107       108       109       110       111       112
       113       114       115       116       117       118       119       120
       121       122       123       124       125       126       127       128
       129       130       131       132       133       134       135       136
       137       138       139       140       141       142       143       144
       145       146       147       148       149       150       151       152
$ ... 832 like lines cut
$
$
*END
$
$
$ ============
$ ORIGAMI data
$ ============
$
$
*ORIGAMI_START
         1Origami 1                                                             
         1         2
$
*AXES
         1
$
*OPTIONS
        80         2         2         2         1
         2        -1         4         5         6         3         7
 1000000.0       1.1       0.9       0.0
$
$ =============
$ List of FOLDs
$ =============
$
$ LINE 1 (Basic data)
$     FIELD 1:  LABEL
$     FIELD 2:  TYPE
$               =0:   NULL
$               =1:   THIN
$               =2:   THICK
$               =3:   TUCK
$               =4:   SPIRAL
$               =5:   SCRUNCH
$               =6:   ALIGN
$     FIELD 3:  UPDOWN
$               =0:   UP
$               =1:   DOWN
$     FIELD 4:  RIGHTLEFT
$               =0:   RIGHT
$               =1:   LEFT
$     FIELD 5:  REFERENCE COORDINATE SET FLAG
$     FIELD 6:  LAYERS FOR TUCK FOLD
$     FIELD 7:  SUBSET FOLDING
$     FIELD 8:  CREATE ALIGN FOLD TRAM LINES
$
$ LINE 2 ( Reference nodes)
$     FIELD 1:  FOLD_NODE
$     FIELD 2:  TUCK_ZSPLIT_N1
$     FIELD 3:  TUCK_ZSPLIT_N2
$     FIELD 4:  LAYER_ZMIN_N1
$     FIELD 5:  LAYER_ZMIN_N2
$     FIELD 6:  LAYER_ZMAX_N1
$     FIELD 7:  LAYER_ZMAX_N2
$
$ LINE 3 (Sets, etc.)
$     FIELD 1:  NODES_LEFT
$     FIELD 2:  NODES_CENTER
$     FIELD 3:  NODES_RIGHT
$     FIELD 4:  SHELL_LEFT
$     FIELD 5:  SHELL_CENTER
$     FIELD 6:  SHELL_RIGHT
$     FIELD 7:  TUCK FOLD TYPE
$
$ LINE 4 (Positions, etc.)
$     FIELD 1:  THICKNESS
$     FIELD 2:  FOLD_XPOS
$     FIELD 3:  FOLD_XTOL
$     FIELD 4:  INPLANE_ANGLE
$
$ LINE 5 (Fold specific data)
$     FIELD 1:  Factor for unused portion of spiral.
$     FIELD 2:  Out-of-plane fold angle.
$     FIELD 3:  Scale factor for fold point separation.
$     FIELD 4:  Location of ZSPLIT for tuck.
$
$ LINE 6 (Layering and align data)
$     FIELD 1:  Minimum value for layer.
$     FIELD 2:  Maximum value for layer.
$     FIELD 3:  Tramline offset distance for align.
$
$ LINE 7 (Reference point.)
$     FIELD 1:  X.
$     FIELD 2:  Y.
$     FIELD 3:  Z.
$
$ LINE 8 (Local X vector.)
$     FIELD 1:  X.
$     FIELD 2:  Y.
$     FIELD 3:  Z.
$
$ LINE 9 (Vector in X-Y plane.)
$     FIELD 1:  X.
$     FIELD 2:  Y.
$     FIELD 3:  Z.
$
$
*FOLD
         1         3         0         0         1         0         0         0
       314         0         0         0         0         0         0
         2         2         2         1         1         1         0
                 5.0           114.50000                 0.0                 0.0
          0.10000000               180.0                 1.0                 0.0
      -1.0000000E+20       1.0000000E+20                 0.0
                 0.0                 0.0                 0.0
                 1.0                 0.0                 0.0
                 0.0                 1.0                 0.0
$
*FOLD
         2         3         0         1         1         0         0         0
      1729         0         0         0         0         0         0
         2         2         2         1         1         1         0
                 5.0          -114.50000                 0.0                 0.0
          0.10000000               180.0                 1.0                 0.0
      -1.0000000E+20       1.0000000E+20                 0.0
                 0.0                 0.0                 0.0
                 1.0                 0.0                 0.0
                 0.0                 1.0                 0.0
$
*FOLD
         3         1         0         1         1         0         0         0
      2343         0         0         0         0         0         0
         2         2         2         1         1         1         0
                 5.0          -36.750000                 0.0                90.0
          0.10000000               180.0                 1.0                 0.0
      -1.0000000E+20       1.0000000E+20                 0.0
                 0.0                 0.0                 0.0
                 1.0                 0.0                 0.0
                 0.0                 1.0                 0.0
$
*FOLD
         4         1         0         0         1         0         1         0
      5483         0         0         0         0         0         0
         2         2         2         1         1         1         0
                 5.0           43.100006                 0.0                90.0
          0.10000000               180.0          0.85000002                 0.0
      -1.0000000E+20       1.0000000E+20                 0.0
                 0.0                 0.0                 0.0
                 1.0                 0.0                 0.0
                 0.0                 1.0                 0.0
$
*FOLD
         5         1         0         1         1         0         1         0
      2154         0         0         0         0         0         0
         2         2         2         1         1         1         0
                 5.0          -37.799988                 0.0                90.0
          0.10000000               180.0          0.85000002                 0.0
      -1.0000000E+20       1.0000000E+20                 0.0
                 0.0                 0.0                 0.0
                 1.0                 0.0                 0.0
                 0.0                 1.0                 0.0
$
*FOLD
         6         2         0         0         1         0         1         0
      3430         0         0         0         0         0         0
         2         2         2         1         1         1         0
                 5.0           14.200012                 0.0                90.0
          0.10000000                90.0          0.85000002                 0.0
      -1.0000000E+20       1.0000000E+20                 0.0
                 0.0                 0.0                 0.0
                 1.0                 0.0                 0.0
                 0.0                 1.0                 0.0
$
*FOLD
         7         6         0         1         1         0         0         1
         0         0         0         0         0         0         0
         2         2         2         1         1         1         0
                 5.0                60.0                 2.0                90.0
          0.10000000                90.0          0.85000002                 0.0
      -1.0000000E+20       1.0000000E+20                 5.0
                 0.0                 0.0                 0.0
                 1.0                 0.0                 0.0
                 0.0                 1.0                 0.0
$
*FOLD
         8         1         0         0         1         0         0         1
       267         0         0         0         0         0         0
         2         2         2         1         1         1         0
                 5.0                60.0                 2.0                90.0
          0.10000000                90.0          0.85000002                 0.0
      -1.0000000E+20       1.0000000E+20                 5.0
                 0.0                 0.0                 0.0
                 1.0                 0.0                 0.0
                 0.0                 1.0                 0.0
$
*FOLD
         9         4         0         0         1         0         0         1
       629         0         0         0         0       110      3577
         2         2         2         1         1         1         0
                 5.0           30.449997                 2.0                 0.0
                 2.0                90.0          0.85000002                 0.0
      -1.0000000E+20           7.4999962                 5.0
           71.000008           62.500000           80.000008
                 0.0                 0.0                 1.0
                -1.0                 0.0                 0.0
$
$ ===============
$ List of ORIENTs
$ ===============
$
$ LINE 1
$     FIELD 1:  LABEL
$     FIELD 2:  TYPE
$               =0: TRANSLATION
$               =1: ROTATION
$               =2: SCALE
$     FIELD 3:  TRANSLATE/ROTATE TYPE
$               =0: X
$               =1: Y
$               =2: Z
$               =3: vector
$               =4: N1->N2
$     FIELD 4:  SCALE TYPE
$               =0: X,Y,Z
$               =1: N1,N2,N3
$     FIELD 5:  N1
$     FIELD 6:  N2
$     FIELD 7:  N3
$     FIELD 8:  CENTRE NODE
$
$ LINE 2
$     FIELD 1:  TRANSLATE DISTANCE TYPE
$               =0: MAGNITUDE OF VECTOR
$               =1: USER DEFINED
$     FIELD 2:  USER DEFINED DISTANCE
$     FIELD 3:  ROTATE/SCALE CENTRE TYPE
$               =0: GLOBAL AXIS
$               =1: COORDINATE
$               =2: NODE
$               =3: N1
$     FIELD 4:  CENTRE[X]
$     FIELD 5:  CENTRE[Y]
$     FIELD 6:  CENTRE[Z]
$     FIELD 7:  ANGLE
$
$ LINE 3
$     FIELD 1:  VECTOR[X]
$     FIELD 2:  VECTOR[Y]
$     FIELD 3:  VECTOR[Z]
$     FIELD 4:  SCALE[X]
$     FIELD 5:  SCALE[Y]
$     FIELD 6:  SCALE[Z]
$
$
*ORIENT
         1         0         0         0         0         0         0         0
         0     100.0         0       0.0       0.0       0.0       0.0
       1.0       0.0       0.0       1.0       1.0       1.0
$
*ORIENT
         2         1         0         0         0         0         0      5726
         0       0.0         2       0.0       0.0       0.0      45.0
       1.0       0.0       0.0       1.0       1.0       1.0
$
*ORIENT
         3         0         4         0      4102      4008         0         0
         1      50.0         0       0.0       0.0       0.0       0.0
       1.0       0.0       0.0       1.0       1.0       1.0
$
*ORIENT
         4         2         0         1      4099      4005      4096      3803
         0       0.0         2       0.0       0.0       0.0       0.0
       1.0       0.0       0.0       1.0       0.8       1.0
$
*ORIGAMI_END
