*KEYWORD
$> 
$> Primer21.0 created on: Tue Mar 26 14:49:33 2024
$> LS-DYNA version: R13.0
$> 
$> end_saved_comments
$
$
$
$ =============
$ CONTROL cards
$ =============
$
*CONTROL_HOURGLASS
         1       0.1
*CONTROL_TERMINATION
       0.5         0       0.0       0.0       0.0         0
$
$
$ ==============
$ DATABASE cards
$ ==============
$
*DATABASE_BINARY_D3THDT
     0.001         0
$
*DATABASE_HISTORY_SOLID_SET
         2
$
$: Cross-reference summary for SET_SOLID 2
$:----------------------------------------
$: DATABASE_<History/Max> <No label>
$
*SET_SOLID
         2
         1         2         3         4         5         6         7         8
         9        10        11        12        13        14        15        16
        17        18        19        20        21        22        23        24
        25        26        27        28        29        30        31        32
        33        34        35        36        37        38        39        40
        41        42        43        44        45        46        47        48
        49        50        51        52        53        54        55        56
        57        58        59        60        61        62        63        64
        65        66        67        68        69        70        71        72
        73        74        75        76        77        78        79        80
        81        82        83        84        85        86        87        88
        89        90        91        92        93        94        95        96
        97        98        99       100       101       102       103       104
       105       106       107       108       109       110       111       112
       113       114       115       116       117       118       119       120
       121       122       123       124       125       126       127       128
       129       130       131       132       133       134       135       136
       137       138       139       140       141       142       143       144
       145       146       147       148       149       150       151       152
$ ... 269 like lines cut
$
$
$
$ ====================
$ MAT (Material) cards
$ ====================
$
*MAT_ELASTIC
         1    7850.0    2.0E11       0.3       0.0       0.0       0.0
$
*MAT_ELASTIC_TITLE
Dummy
         2      10.0      10.0       0.3       0.0       0.0       0.0
$
$
$
$ =============
$ SECTION cards
$ =============
$
*SECTION_SOLID
         1         2         0                                     0.0       0.0
$
$
$
$ ==========
$ PART cards
$ ==========
$
*PART

         1         1         1         0         0         0         0         0
$
*PART

         2         1         2         0         0         0         0         0
$
$
$
$ ==========
$ NODE cards
$ ==========
$
*NODE
       1             0.0.071999996900558             0.0       0       0
       2         0.03125.071999996900558             0.0       0       0
       3          0.0625.071999996900558             0.0       0       0
       4         0.09375.071999996900558             0.0       0       0
       5           0.125.071999996900558             0.0       0       0
       6         0.15625.071999996900558             0.0       0       0
       7          0.1875.071999996900558             0.0       0       0
       8         0.21875.071999996900558             0.0       0       0
       9            0.25.071999996900558             0.0       0       0
      10         0.28125.071999996900558             0.0       0       0
      11          0.3125.071999996900558             0.0       0       0
      12         0.34375.071999996900558             0.0       0       0
      13           0.375.071999996900558             0.0       0       0
      14         0.40625.071999996900558             0.0       0       0
      15          0.4375.071999996900558             0.0       0       0
      16         0.46875.071999996900558             0.0       0       0
      17             0.5.071999996900558             0.0       0       0
      18         0.53125.071999996900558             0.0       0       0
      19          0.5625.071999996900558             0.0       0       0
      20         0.59375.071999996900558             0.0       0       0
$ ... 3655 like lines cut
$
$
$ =============
$ ELEMENT cards
$ =============
$
*ELEMENT_SOLID
       1       1       1      50      51       2    1226    1275    1276    1227
       2       1       2      51      52       3    1227    1276    1277    1228
       3       1       3      52      53       4    1228    1277    1278    1229
       4       1       4      53      54       5    1229    1278    1279    1230
       5       1       5      54      55       6    1230    1279    1280    1231
       6       1       6      55      56       7    1231    1280    1281    1232
       7       1       7      56      57       8    1232    1281    1282    1233
       8       1       8      57      58       9    1233    1282    1283    1234
       9       1       9      58      59      10    1234    1283    1284    1235
      10       1      10      59      60      11    1235    1284    1285    1236
      11       1      11      60      61      12    1236    1285    1286    1237
      12       1      12      61      62      13    1237    1286    1287    1238
      13       1      13      62      63      14    1238    1287    1288    1239
      14       1      14      63      64      15    1239    1288    1289    1240
      15       1      15      64      65      16    1240    1289    1290    1241
      16       1      16      65      66      17    1241    1290    1291    1242
      17       1      17      66      67      18    1242    1291    1292    1243
      18       1      18      67      68      19    1243    1292    1293    1244
      19       1      19      68      69      20    1244    1293    1294    1245
      20       1      20      69      70      21    1245    1294    1295    1246
$ ... 2284 like lines cut
$
$
$ ============
$ DEFINE cards
$ ============
$
$
*DEFINE_CURVE
$:
$: Cross-reference summary for Load-curve 1
$: -----------------------------------------------
$:
$: Loading definition <No label>: Nodal force vs time
$: X axis : Time                       (Units: Time)
$: Y axis : Nodal force                (Units: Force)
$:
$: Usage: Transient analysis
$:
         1         0       0.0       0.0       0.0       0.0         0         0
                 0.0                 0.0
                 0.1                 1.0
                 2.0                 1.0
$
$
$
$ ==============
$ BOUNDARY cards
$ ==============
$
*BOUNDARY_SPC_SET
         1         0         1         1         1         1         1         1
$
$: Cross-reference summary for SET_NODE 1
$:---------------------------------------
$: SPC <No label>
$
*SET_NODE_LIST
         1       0.0       0.0       0.0       0.0
         1        50      1128      1177      1226      1275      2353      2402
      2451      2500      3578      3627
$
$
$
$ ==========
$ LOAD cards
$ ==========
$
*LOAD_NODE_POINT
      1862         3         1    -100.0         0
$
*END
